Circuit: * C:\Users\Berkin\Desktop\ee313_project\tasarim.asc

Early termination of direct N-R iteration.
Direct Newton iteration failed to find .op point.  (Use ".option noopiter" to skip.)
Starting Gmin stepping
Gmin = 10
Gmin = 1.07374
Gmin = 0.115292
Gmin = 0.0123794
Gmin = 0.00132923
Gmin = 0.000142725
Gmin = 1.5325e-005
Gmin = 1.6455e-006
Gmin = 1.76685e-007
Gmin = 1.89714e-008
Gmin = 2.03704e-009
Gmin = 2.18725e-010
Gmin = 2.34854e-011
Gmin = 2.52173e-012
Gmin = 2.70769e-013
Gmin = 0
Gmin stepping succeeded in finding the operating point.


Date: Thu Feb 10 07:54:31 2022
Total elapsed time: 0.385 seconds.

tnom = 27
temp = 27
method = modified trap
totiter = 2407
traniter = 2082
tranpoints = 1042
accept = 1042
rejected = 0
matrix size = 77
fillins = 85
solver = Normal
Thread vector: 47.5/12.5[9] 8.5/5.1[9] 6.2/2.1[9] 0.9/1.0[1]  2592/500
Matrix Compiler1: 7.06 KB object code size  2.5/1.6/[0.6]
Matrix Compiler2: 9.20 KB object code size  1.5/1.7/[1.2]

